24

S        4.390323   -1.611880    0.446388
C        2.911378   -0.725374    0.002882
C        2.467437    0.271944    0.861960
C        1.311179    0.974036    0.574728
C        0.578715    0.696574   -0.572367
S       -0.886622    1.644154   -0.970999
C       -2.182203    0.727140   -0.137813
C       -2.869886   -0.277339   -0.807343
C       -3.894619   -0.961956   -0.174600
C       -4.242363   -0.643286    1.128154
C       -3.565836    0.364309    1.796319
C       -2.541401    1.050455    1.164590
C        1.034392   -0.292059   -1.433157
C        2.186153   -1.005022   -1.146986
H        4.629776   -2.162959   -0.733733
H        3.027714    0.509030    1.748259
H        0.983406    1.749569    1.241579
H       -2.606057   -0.518158   -1.820395
H       -4.421539   -1.738543   -0.699519
H       -5.039530   -1.173383    1.617865
H       -3.836361    0.619569    2.805204
H       -2.023672    1.838635    1.679012
H        0.487835   -0.509309   -2.331967
H        2.511694   -1.774677   -1.822977
24

S        2.191451   -4.144903    0.299458
C        0.706149   -3.243220   -0.130532
C        0.226123   -2.240162    0.696165
C       -0.942617   -1.561236    0.387621
C       -1.653346   -1.888221   -0.757092
S       -3.176485   -1.106984   -1.264243
C       -3.450023    0.172649   -0.052347
C       -2.961697    1.455500   -0.270343
C       -3.214602    2.460608    0.648779
C       -3.958779    2.189895    1.786064
C       -4.453291    0.913735    2.003529
C       -4.203095   -0.092943    1.085264
C       -1.179600   -2.902145   -1.584978
C       -0.014317   -3.574308   -1.271921
H        3.076926   -3.356327   -0.299449
H        0.764319   -1.984492    1.590041
H       -1.288912   -0.787867    1.044693
H       -2.389053    1.662089   -1.155235
H       -2.834157    3.451004    0.475057
H       -4.155727    2.971155    2.498097
H       -5.034515    0.701913    2.882780
H       -4.588665   -1.082272    1.247369
H       -1.722758   -3.168098   -2.474252
H        0.337552   -4.358587   -1.915965
